powerflow/Codes/data/caso_red.pwf
(ARQUIVO GRAVADO A PARTIR DO PROGRAMA ORGANON)
TITU
ONS * PARPEL 2027-2031 * VERÃO 2027/2028 MÁXIMA DIURNA
DOPC
(Op) E (Op) E (Op) E (Op) E (Op) E (Op) E (Op) E (Op) E (Op) E (Op) E
QLIM L VLIM L CREM L CTAP D STEP L NEWT L RCVG L RMON L FILE L SUBS L
CONT L NOVO L CELO L MFCT L AREG L STPO L VLCR L CPHS D IANG L
99999
DCTE
(Mn) ( Val) (Mn) ( Val) (Mn) ( Val) (Mn) ( Val) (Mn) ( Val) (Mn) ( Val)
BASE   100. DASE   100. TEPA     .1 EXST    .04 TETP     5. TBPA     5.
TLPP     1. TEPR    .01 QLST    .04 TLPR    .01 TLPQ     2. TSBZ    .01
TSBA     5. ASTP    .05 VSTP     5. TLVC    .05 TLTC    .01 TSFR  .1E-7
ZMAX   500. TLPV     .5 VDVM   200. VDVN    40. TUDC   .001 TADC    .01
PGER    30. TPST    .02 VFLD    50. ZMIN   .001 HIST    470 LFIT     10
ACIT     35 LFCV      1 DCIT     10 VSIT     10 LPIT     50 LFLP     10
PDIT     10 LCRT    200 LPRT     60 CSTP     5. ASDC     1.
ICIT     50 DMAX      5 FDIV     2. ICMN    .05 VART     5. TSTP     32
ICMV     .5 APAS    90. CPAR    70. VAVT     2. VAVF     5. VMVF    15.
VPVT     2. VPVF     5. VPMF    10. VSVF    20. VINF     1. VSUP     1.
TLSI     0. NDIR    20. STTR     5. TRPT   100. STIR     1. BFPO     1.
LFPO     .1 TLMT     0. TLMF     0. TLMG     0. PARS    10.
99999
DBAR
(Num)OETGb(   nome   )Gl( V)( A)( Pg)( Qg)( Qn)( Qm)(Bc  )( Pl)( Ql)( Sh)Are(Vf)M(1)(2)(3)(4)(5)(6)(7)(8)(9)(10
 5001 L  CP.AFON-BA500 3106249.5                                         7111071                               
 5002 L  LCABPRA-RN034 5100172.6                                         7411000                               
 5003 L  FPAFBP1-BA230 5104949.3                                         7121050                               
 5004 L  FPAFBP2-BA230 51050 49.                                         7121055                               
 5005 L  VPAF1G1UHE000 51072 49.                                         7121050                               
 5006 L1 VPAFO1GUHE000 51025 49.   0.   0.   0.   0.                     7121050                               
 5008 L  LCABPRB-RN034 5100272.7                                         7411000                               
 5009 L1 VPAF2G1UHE000 5107149.3   0.   0.   0.   0.                     7121000                               
 5010 L1 VPAF2G2UHE000 5107149.3   0.   0.   0.   0.                     7121000                               
 5011 L1 VPAF2G3UHE000 5107049.3   0.   0.   0.   0.                     7121050                               
 5012 L1 VPAF2G4UHE000 5107149.3   0.   0.   0.   0.                     7121050                               
 5013 L1 VPAF2G5UHE000 5107049.3   0.   0.   0.   0.                     7121050                               
 5014 L1 VPAF2G6UHE000 5107049.3   0.   0.   0.   0.                     7121050                               
 5015 L1 VPAF3G1UHE000 5102149.3   0.   0.   0.   0.                     7121036                               
 5016 L1 VPAF3G2UHE000 51023 49.   0.   0.   0.   0.                     7121036                               
 5019 L  GCABEPR-RN138 5100170.8                                         7411000                               
 5020 L  LTRAIT2-CE034 5100263.4                                         7621000                               
 5021 L  FPROSPI-BA230 5101630.1                                         7121000                               
 5022 L1 LPAFO-4UHE003 51002 55.1119.-332.-690. 615.                     7111050                               
 5028 L  FMXTBP2-BA230 51050 49.                                         7121057                               
 5029 L  FMXTBP1-BA230 5104949.3                                         7121053                               
 5030 L1 VASALG1UHE000 5102149.3   0.   0.   0.   0.                     7121036                               
 5031 L  VASALG2UHE000 5102149.3                                         7121036                               
 5032 L1 VASALG3UHE000 51023 49.   0.   0.   0.   0.                     7121036                               
 5033 L  VASALG4UHE000 51023 49.                                         7121036                               
 5034 L  LCALCAR-CE034 5100275.3                                         7621000                               
 5035 L  FCALCAR-CE230 5101271.1                                         7621000                               
 5036 L  LCUTIAC-RN034 5100272.9                                         7421000                               
 5037 L  FLBARRO-PI230 5100558.5                                         7721000                               
 5038 L  LLBARR1-PI034 5 97360.2                                         7721000                               
 5039 L  LLBARR2-PI034 5 97061.6                                         7721000                               
 5040 L  LLBARR2EOL030 5 95762.9 18.6-15.8                               7721000                               
 5041 L  FCUTIA--RN230 5100870.9                                         7421000                               
 5042 L  LCUTIAA-RN034 5100372.7                                         7421000                               
 5043 L  LCUTIAB-RN034 5100572.8                                         7421000                               
 5044 L  LCUTIAAEOL047 5100273.9 29.6-5.38                               7421000                               
 5045 L  FBABILO-BA230 5100938.2                                         7021000                               
 5046 L  LBABIL1-BA034 5100439.5                                         7021000                               
 5047 L  LBABIL2-BA034 5100839.1                                         7021000                               
 5048 L  LBABIL2EOL026 5100240.2 10.9-5.55                               7021000                               
 5049 L  ICAETIT-BA069 5100434.6                                         7031000                               
 5050 L  CL.GONZ-PE500 3106750.3                                         7211076                               
 5051 L1 VLGONG1UHE001 5100755.5 230.-72.3-120. 125.                     7211050                               
 5054 L1 VLGONG4UHE001 5100755.5 230.-72.3-120. 125.                     7211050                               
 5057 L  IPELOUR-BA069 5100434.6                                         7021000                               
 5058 L  LCAETB1-BA034 5100135.7                                         7031000                               
 5059 L  LPELOUR-BA034 5100135.4                                         7031000                               
 5060 L  CXINGO--AL500 3106946.1                                         7211072                               
 5061 L2 VXINGO-UHE003 5100651.41180.-395.-660. 519.                     7211050                               
 5067 L  LCAETB1EOL018 5100036.4   6.-.885                               7031000                               
 5068 L  NLND-T1-RN013 6100369.2                                         7421000                               
 5069 L  ULND-T1-RN000 6100369.2                                         74210001                              
 5071 L  FLNOVA2-RN230 5100867.7                                         7421000                               
 5073 L  ILNOVA2-RN069 5100469.1  2.9   0.                  6.1  1.5     7431000                               
 5075 L  LCALAN1EOL030 5 99671.7  12.-4.45                               7431000                               
 5078 L  LCUTIABEOL050 5100674.4 31.5-4.63                               7421000                               
 5079 L  LSSAN12EOL025 5 99771.9  10. -3.8                               7431000                               
 5081 L  FMARACN-CE230 5101656.5                                         7621000                               
 5083 L  IMARACN-CE069 5101053.7 45.3   0.                218.4 37.8     7631000                               
 5090 L  CGARANH-PE500 3108349.6                                         7211000                               
 5091 L  FGARANH-PE230 5101848.6                                         7221000                               
 5092 L  FARCOVE-PE230 5101648.4                                         7221000                               
 5093 L  IARCOVE-AL069 5100747.3 20.6   0.                 54.1 13.3     7231000                               
 5096 L  URGOAT2-PI000 6101856.7                                         77110001                              
 5097 L  NRGOAT2-PI013 6101856.7                                         7711000                               
 5098 L  FCAETII-PE230 51017 49.                                         7221000                               
 5099 L  IGARANH-PE069 5101447.1 20.6   0.                 62.1 17.1     7231000                               
 5100 L  CANGEL2-PE500 3107949.1                                         7211068                               
 5101 L  FANGELI-PE230 5101848.4                                         7221042                               
 5102 L  UAGLT5--PE000 6101047.6                                         72210401                              
 5103 L  IANGELI-PE069 5101147.7   .4   0.                               7231044                               
 5104 L  NAGLT5--PE013 6101047.6                                         7221040                               
 5106 L  NAGLTIP-PE013 5100847.3   .9   0.                  1.9   .5     7231032                               
 5110 L  FBRASKE-AL230 5101441.5                                         7221020                               
 5111 L  FR.LARG-AL230 5103243.3                                         7221038                               
 5113 L  IR.LARG-AL069 5101542.2 72.1   0.                125.6 35.3     7231039                               
 5115 L  NBRASKA-AL013 5112436.4                           51.2 12.8     724 999                               
 5116 L  NBRASKB-AL013 5112436.4                           51.2 12.8     724 999                               
 5117 L  NBRASKC-AL013 5112837.5                           51.2 12.8     7241000                               
 5118 L  NSGMA1--AL013 5112436.4                                         7231039                               
 5119 L  NSGMB1--AL013 5112436.4                                         7231039                               
 5120 L  NSGMC1--AL013 5112837.5                                         7231047                               
 5121 L  FTACAIM-PE230 5100149.7                                         7221028                               
 5123 L  ITACAIM-AL069 51008 47. 134.   0.                298.1 88.8     7231015                               
 5124 L  LBSULB1EOL021 5100273.1 13.2-.257                               7411000                               
 5126 L  LCUTIACEOL052 5100174.1 32.7-6.04                               7421000                               
 5127 L  LCABPRBEOL035 5100574.7 21.8-1.68                               7411000                               
 5128 L  FJCAMR3-RN230 5 99968.9                                         7421000                               
 5131 L  FPIRAPA-PE230 5100243.8                                         7221034                               
 5132 L  IMTNORT-PE069 5100746.2  5.7   0.                  8.1 -1.4     7231000                               
 5133 L  IPIRAPA-PE069 5101241.5 17.3   0.                 156. 44.7     7231000                               
 5134 L1 VTCB---UTE000 5101241.5   0.   0.   0.   0.                     7221000                               
 5135 L  UMIDT1--PE000 6101143.4                                         72210001                              
 5136 L  NMIDT1--PE013 6101143.4                                         7221000                               
 5137 L  UMIDT2--PE000 6101143.5                                         72210001                              
 5138 L  NMIDT2--PE013 6101143.5                                         7221000                               
 5139 L  UMCDT1--AL000 6102641.5                                         72210001                              
 5140 L  CRECIFE-PE500 3106145.7                                         7211038                               
 5141 L  FRCDBP1-PE230 5100544.9                                         7221044                               
 5142 L  FRCDBP2-PE230 51005 45.                                         7221043                               
 5143 L  NMCDT1--AL013 6102641.5                                         7221000                               
 5144 L  URCDCS1-PE000 6 95344.9                                         72210261                              
 5145 L1 TRCDSIESIN001 5100544.9   0.62.77-105. 150.                     7221050                               
 5146 L  UMCDT2--AL000 6102541.5                                         72210001                              
 5147 L1 TRCDALSSIN001 5100544.9   0.62.77-105. 150.                     722 990                               
 5148 L  NMCDT2--AL013 6102541.5                                         7221000                               
 5149 L  LCAETB1-PE034 5101050.1                                         7221000                               
 5150 L  FTERMOP-PE230 5100343.9                                         7221034                               
 5151 L1 VTERPEGUTE000 5100743.9   0.   0.   0.   0.                     7221034                               
 5152 L  FBONGI--PE230 5 99243.6                                         7221033                               
 5154 L1 VTERPEVUTE000 5100743.9   0.   0.   0.   0.                     7221034                               
 5155 L  FPARANA-PE230 5102049.8                                         7221000                               
 5156 L  IBONGI--PE069 5101330.6 29.3   0.                398.6 59.9     7231000                               
 5157 L  NBGRLT6-PE013 51033 42.                                         7231000                               
 5158 L  NBGI-T6-PE013 5102540.9  3.6   0.                 15.8  4.9     7231000                               
 5159 L  NBGRLT7-PE013 5103542.3                                         7231000                               
 5160 L  NBGI-T7-PE013 5102841.4  2.7   0.                 12.4  4.1     7231000                               
 5162 L  FRD.HNK-PE230 51001 45.                                         7241024                               
 5164 L  UBGI-T3-PE000 6101543.6                                         72210001                              
 5165 L  NBGI-T3-PE013 6101543.6                                         7221000                               
 5166 L  NBGI-T5-PE013 5101840.2  3.1   0.                 17.4  5.3     7231000                               
 5167 L  LPARA-1-PE034 5100250.9                                         7221000                               
 5168 L  GJCTBP2-RN138 5 99869.7                                         7411000                               
 5169 L  GJCTBP3-RN138 5 98470.1                                         7411000                               
 5170 L  LCALCARUFV136 5100176.2 79.2-9.78                               7621000                               
 5176 L  CTIANGD-CE500 3107057.3                                         7611000                               
 5178 L1 VPEIII-UTE000 5100646.7   0.   0.   0.   0.                     7221000                               
 5180 L  CP.FERR-PE500 3107149.4                                         7211000                               
 5181 L  FP.FERR-PE230 5100646.7                            80. 23.3     7221024                               
 5183 L  IP.FERR-AL069 5100844.4 38.5   0.                168.4  48.     7231024                               
 5184 L  FPEIII--PE230 5100646.7                                         7221000                               
 5191 L  FMIRUEI-PE230 51000 45.                                         7221023                               
 5193 L  IMIRUEI-PE069 5102137.7 51.3   0.                 251. 74.3     7231015                               
 5196 L  NMRRT3--PE013 6102037.6  7.9.2526                               7221013                               
 5199 L  UMRRT3--PE000 6102037.3                                         72210001                              
 5200 L  CCGT----PB500 3107456.9                                         7411026                               
 5201 L  FGOIANI-PE230 51004 47.                                         7221005                               
 5202 L  FCGT----PB230 5101255.5                                         7421026                               
 5203 L  IGOIANI-PE069 5100345.3                                         7231015                               
 5204 L  NGNRLT1-PE013 6100845.3                                         7221039                               
 5205 L1 TGNNT1-SIN000 5101745.3   0.3.611  -9.  20.                     7221088                               
 5206 L  NGNRLT2-PE013 6100345.3                                         7221013                               
 5207 L  UGNNT1--PE000 6100345.3                                         72210001                              
 5208 L  UGNNT2--PE000 6100345.3                                         72210001                              
 5209 L  NGNNT2--PE013 5100345.3                                         7221000                               
 5211 L  FMUSSU2-PB230 5100147.4                                         742 982                               
 5212 L  FNORFIL-PB230 5100147.3                                         7421000                               
 5213 L  IMUSSU2-PB069 5101542.2 31.8   0.                 327. 97.1     7431029                               
 5214 L  UMRDT1--PB000 6101441.9                                         74210281                              
 5215 L  NMRDT1--PB013 6101441.9                                         7421028                               
 5216 L  FCOTEMI-PB230 5101354.6                                         7421000                               
 5218 L1 VUTEPB-UTE000 5100147.4   0.   0.   0.   0.                     7421000                               
 5219 L1 VUTENE-UTE000 5100147.4   0.   0.   0.   0.                     7421000                               
 5220 L1 VCGRAN-UTE000 5101454.8   0.   0.   0.   0.                     7421000                               
 5222 L  FCGDBPD-PB230 5101454.8                                         7421026                               
 5226 L  ICGRAN2-PB069 5101853.2 23.6   .1                               7431044                               
 5231 L  NCGDRL2-PB013 6100855.3                                         7421000                               
 5232 L1 TCGD1--CER000 5103455.3   0.13.82 -10.  20.                     7421010                               
 5235 L  GCGRAN2-PB138 5100355.6                                         7431055                               
 5236 L  UCGDT2--PB000 6100855.3                                         74210001                              
 5237 L  UCGDT1--PB000 6101455.3                                         74210001                              
 5238 L  NCGDRL1-PB013 6102155.3                                         7421000                               
 5239 L  UCGDCER-PB000 6100454.8                                         74210001                              
 5240 L1 VPOT1--UTE000 5100061.7   0.   0.   0.   0.                     7431000                               
 5241 L  FNATAL2-RN230 5100462.9                                         7421027                               
 5242 L1 VPOT3--UTE000 5100061.7   0.   0.   0.   0.                     7431000                               
 5243 L  INATAL2-RN069 5101459.9 65.8   0.                230.6  4.1     7431029                               
 5245 L  FNATAL3-RN230 5100563.1                                         7421030                               
 5246 L  INATAL3-PB069 5100061.7110.6   0.                 212.   8.     7431000                               
 5247 L  UCGDT3--PB000 6101853.1                                         74210001                              
 5248 L  NCGDT3--PB013 6101853.1                                         7421000                               
 5249 L  GPILOES-PB138 5 95253.2                                         7431000                               
 5252 L  GS.CRUZ-RN138 5104261.4                                         7431019                               
 5253 L  IS.CRUZ-RN069 5100659.7                                         7431015                               
 5254 L  FPARAIS-RN230 5100564.4                                         7421050                               
 5255 L  GPARAIS-RN138 51045 62.                                         7431000                               
 5256 L  NSTDTIP-RN013 5100659.7                                         743 977                               
 5257 L  IPNA----RN069 5100061.7                                         7431000                               
 5258 L  IPOTIGU-RN069 5100061.7                                         7431000                               
 5259 L  NCGDT5--PE013 6101853.1                                         7421000                               
 5262 L  FC.NOVO-RN230 5100967.8                                         7421011                               
 5263 L  IC.NOVO-RN069 5100267.6 50.5   0.                 85.4   1.     7431015                               
 5264 L  UCGDT5--PB000 6101853.1                                         74210001                              
 5265 L  NCNOVT1-RN013 6100467.8                                         7421000                               
 5267 L  NCNOVT2-RN013 6100467.8                                         7421000                               
 5268 L  UCRDT1--RN000 6100467.8                                         74210001                              
 5269 L  UCRDT2--RN000 6100467.8                                         74210001                              
 5271 L  FSRITA2-PB230 5100347.3                                         7421000                               
 5272 L  USRDT1--PB000 6101547.8                                         74210001                              
 5273 L  ISRITA2-PB069 5101344.9 34.6   0.                230.9 73.9     7431000                               
 5274 L  NSRITA2-PB013 6101547.8                                         7421000                               
 5276 L  UNTDT1--RN000 6101459.7                                         74210001                              
 5277 L  NNTDT1--RN013 6101459.7                                         7421000                               
 5281 L  FRIBEIR-PE230 5 99644.5                                         7221032                               
 5283 L  IRIBEIR-AL069 5100941.8 86.5   0.                247.1 56.5     7231000                               
 5285 L  NAQZT1--CE013 6103758.6                                         7621000                               
 5286 L  UAQZT1--CE000 6103758.6                                         76210001                              
 5287 L  UIBDT1--CE000 6100657.3                                         76210001                              
 5288 L  NIBDT1--CE013 6100657.3                                         7621000                               
 5291 L  FPENEDO-AL230 5100738.9                                         7221006                               
...
99999
DLIN
(De )d O d(Pa )NcEP ( R% )( X% )(Mvar)(Tap)(Tmn)(Tmx)(Phs)(Bc  )(Cn)(Ce)Ns(Cq)(1)(2)(3)(4)(5)(6)(7)(8)(9)(10
 5001      5022 1         .89033      1.025                     13501620  1350                              
 5001      5050 1      .04   .47 46.42                          21652754   25.                              
 5001      5050 2     .039  .477 50.63                          21872754  2187                              
 5001      5060 6      .05   .68  67.4                          21652165  100.                              
 5001      5100 6      .22  2.79 284.6                          21652165   20.                              
 5001      7280 5     .087  1.07 108.4                          21652165  2165                              
 5001     44009 7           .434         1.                     600.600.  600.                              
 5001     44011 8           .478         1.                     600.600.  600.                              
 5001     47231 1          2.671      1.025                     18002160  450.                              
 5002      6052 1    1.82516.636 3.556                          99999999  9999                              
 5003      5011 1          19.91        .98                      75. 90.  2186                              
 5003      5013 1          15.78        .98                      90.108.  2186                              
 5003      5014 1          15.52        .98                      90.108.  2186                              
 5003      5015 1           5.55      1.027                     240.288.  600.                              
 5003      5029 1      .11   .58 1.011                          314.314.  314.                              
 5003      5091 3    3.68120.066 34.32                          174.247.  247.                              
 5003      5378 1      .87   4.5  8.18                          251.251.  251.                              
 5003      5401 3     2.18  9.72  50.9                          400.400.  400.                              
 5003      5701 3     2.45  13.1 22.68                          251.251.   75.                              
 5003      5711 7     2.96 15.23  28.9                          251.317.   90.                              
 5003      5732 1    1.987 10.78 17.38                          174.247.  247.                              
 5003      6200 1           6.24      1.025                      75. 75.  251.                              
 5003      6201 1           5.33      1.025                      75. 75.  425.                              
 5003      6202 1           4.35      1.025                      90. 90.  251.                              
 5003      6262 1       .1   .52   .98                          251.317.  251.                              
 5003     44098 1 T    .01   .08                                99999999  9999                              
 5003     44106 1      .01   .07                                99999999  9999                              
 5004      5005 1         21.185        .98                      67. 67.   75.                              
 5004      5006 1         21.124      1.025                      67. 80.   90.                              
 5004      5016 1          6.017      1.027                     240.288.  600.                              
 5004      5028 1      .11   .58 1.011                          314.314.  1204                              
 5004      5091 2    3.68120.066 34.32                          174.247.  247.                              
 5004      5091 4     1.8215.632 46.38                          348.494.  348.                              
 5004      5701 2     2.46 13.15 22.74                          174.247.  247.                              
 5004      5711 6     2.96 15.23  28.9                          251.317.   67.                              
 5004      6262 2       .1   .52   .98                          251.317.  251.                              
 5004     44099 1 T    .01   .07                                99999999  9999                              
 5008      5127 1     1.7616.304 3.444                          99999999  9999                              
 5019      5002 1          15.29         1.                     99999999  9999                              
 5019      5008 1          15.29         1.                     99999999  9999                              
 5020      7199 1   4.686918.644 1.564                          99999999  9999                              
 5021      5756 5    .34972.1739 4.004                          464.471.  464.                              
 5021      6104 1          23.64         1.                      42. 42.   42.                              
 5021      8421 1         12.239         1.                      72. 72.   72.                              
 5021     45528 1         12.239                                 72. 72.   72.                              
 5028      5032 1          11.77      1.027                     120.144.  348.                              
 5028      5033 1          11.75      1.027                     120.120.  425.                              
 5029      5030 1          11.77      1.027                     120.144.  174.                              
 5029      5031 1          11.75      1.027                     120.120.  251.                              
 5034      5170 1     .146 1.886  2.96                          99999999  9999                              
 5035      5034 1           9.33         1.   .9  1.1      -5034120.140.32120.                              
 5036      5126 1     .678  6.23   1.9                          99999999  9999                              
 5037      5038 1         11.667         1.                     120.120.  120.                              
 5037      5039 2         11.667         1.                     120.120.  120.                              
 5037     44902 3      .37 15.33         1.   .9  1.1     -44902 90.126.17 90.                              
 5038      5322 1   1.17117.7434  .511                          99999999  9999                              
 5039      5040 1   1.53769.6367 .4638                          99999999  9999                              
 5039     47481 1      1.5   12.   1.2                          99999999  9999                              
 5041      5036 3         10.833         1.   .9  1.1      -5036120.140.32120.                              
 5041      5042 1         10.833         1.                     120.140.  120.                              
 5041      5043 2         10.833         1.   .9  1.1      -5043120.140.32120.                              
 5042      5044 1     .782 6.911 1.509                          99999999  9999                              
 5043      5078 1    1.642  8.73 2.532                          99999999  9999                              
 5045      5046 1         13.333         1.                      90. 90.   90.                              
 5045      5047 1         13.333         1.                      90. 90.   90.                              
 5046      6109 1     .46212.111 4.235                          99999999  9999                              
 5047      5048 1    1.08518.599 4.477                          99999999  9999                              
 5049      5058 2          33.45         1.                     99999999  9999                              
 5049      8689 1          33.45         1.                     99999999  9999                              
 5050      5051 1           4.11      1.025                     825.990.  275.                              
 5050      5054 1           4.11      1.025                     825.990.  275.                              
 5050      5090 1     .296 3.037 313.2                          13061854  1306                              
 5050      5090 2     .148 2.353 335.5                          26783373  2678                              
 5050      5740 4      .31   3.1 324.3                          13061854  1854                              
 5050      6500 4     .278 3.536 365.2                          25002165  2500                              
 5057      5059 1          33.45         1.                     99999999  9999                              
 5057      5059 2          33.45         1.                     99999999  9999                              
 5058      5067 1   2.0813 19.17 .0371                          99999999  9999                              
 5059      6227 1    .9453 13.27 .0405                          99999999  9999                              
 5060      5061 1         .83333      1.025                     34804176  580.                              
 5060      5100 1     .206 2.525 261.9                          10001500  1000                              
 5060      5300 4 T    .21  2.78 279.8                          21652165  2186                              
 5060      5720 5      .15  1.97 213.1                          21652165  2165                              
 5060      5720 8     .165 2.006 212.6                          21872754  2187                              
 5060      5750 1    .2752 4.052 503.4                          24383412  3412                              
 5060      5750 2    .2752 4.052 503.4                          24383412  3412                              
 5060     47215 1            2.5      1.025                     23202784  580.                              
 5069      5068 1           28.7         1.                       1.  1.    1.                              
 5069      5073 1          -.773         1.                     150.180.  150.                              
 5071      5069 1          9.413      .9982 .7261.117      -5073150.180.21150.                              
 5071      5073 2            8.8         1. .7261.117      -5073150.180.21150.                              
 5071      5073 3           8.45         1. .7261.117      -5073150.180.21150.                              
 5071      5254 7      .48  3.54 23.36                          554.697.  697.                              
 5071      5254 8     1.23  6.52 12.04                          299.299.  299.                              
 5071      8796 6      .33  1.67 3.107                          250.292.  250.                              
 5071     44705 3     .6633.3252 6.151                          299.299.  299.                              
 5073      8087 1     .938  2.32  .039                           68. 68.   68.                              
 5073      8089 1    1.186 5.157    .1                          106.106.  106.                              
 5073      8092 1    1.186 5.157 .5987                          106.106.  106.                              
 5073      8094 1    1.0483.7385  .274                          168.212.  212.                              
 5073      8109 1     .512 2.876  .027                           93.117.  117.                              
 5081      7231 1    .18339.6333      .9928   .9  1.1      -5083150.180.19150.                              
 5081      7233 2    .18339.6333      .9928   .9  1.1      -5083150.180.19150.                              
 5081      7599 3    .18339.6333      .9928   .9  1.1      -5083150.180.19150.                              
 5083      7231 1    .0233-.9467         1.                     150.180.  150.                              
 5083      7233 2    .0233-.9467         1.                     150.180.  150.                              
 5083      7599 3    .0233-.9467         1.                     150.180.  150.                              
 5090      5100 5     .015  .161 15.59                          13061854  1306                              
 5090      5180 4     .143 2.261 322.3                          26783373  2678                              
 5090      5200 3     .132 2.095 298.6                          26783373  1214                              
 5090     42302 1           2.45         1.                     600.720.  600.                              
 5091      5092 4    1.251 7.474 14.53                          398.458.  458.                              
 5091      5098 2    .9613 4.593 8.042                          263.263.  263.                              
 5091      5101 2     .107  .582 3.982                          348.495.  348.                              
 5091      5101 4     .106 .9076 2.687                          348.494.  348.                              
 5091      5101 6     .118  .822  2.96                          498.633.  498.                              
 5091      5155 1     .8834.5528 8.224                          239.239.  239.                              
 5091      6067 3    .88974.2513 7.444                          99999999  9999                              
 5091     42302 1           -.22      .9232  .841.109       5091600.720.32600.                              
 5091     4396610     .12713.889      .9922.72561.117      -5099100.120.21100.                              
 5091     4396811     .12813.924      .9922.72561.117      -5099100.120.21100.                              
 5092     44015 1     .12813.889      .9987.72561.117      -5093100.120.21100.                              
 5092     44017 2     .12813.908      .9987.72561.117      -5093100.120.21100.                              
 5093     44015 1     .389 -.509         1.                     100.120.  100.                              
 5093     44017 2     .389 -.489         1.                     100.120.  100.                              
 5093     47170 1 T         .001                                99999999  9999                              
 5096      5097 2         11.078         1.                      75.  2.    2.                              
 5096      5430 2          -.425         1.                     300.300.  300.                              
 5098      5092 1     .743 4.434  8.61                          398.458.  458.                              
 5098      5149 1         11.667         1.                     99999999  9999                              
 5098      8669 2         11.667         1.                     99999999  9999                              
 5099     4396610     .385-.5086         1.                     100.120.  100.                              
 5099     4396811    .3826-.4736         1.                     100.120.  100.                              
 5100      5180 3     .254 2.812  286.                          13061854  1306                              
 5100     42304 1      .011.4645         1.                     600.600.  275.                              
 5100     42305 2      .011.4645         1.                     600.600.  275.                              
 5101      5102 5         13.565      .9898 .7261.117      -5103100.108.211306                              
 5101      5103 3    .3276 12.48      1.004 .7261.117      -5103100.108.21120.                              
 5101      5103 6          13.25      1.004 .7261.117      -5103100.100.21 26.                              
 5101      5121 4     1.19  6.12 11.88                          251.251.  251.                              
 5101      5121 5      1.2  6.26 11.76                          251.251.  251.                              
 5101      5121 6     1.22  6.15 12.22                          251.317.  251.                              
 5101      5141 3     3.12 16.34 29.76                          174.174.  174.                              
 5101      5281 1      2.1 11.44 18.96                          174.247.  174.                              
 5101      5281 2      2.1 11.44 18.96                          174.174.  120.                              
 5101      5301 7     1.44  7.35 13.74                          174.235.  251.                              
 5101      5301 8     1.44  7.35 13.74                          174.235.  174.                              
 5101      5302 9     1.46   7.7 13.42                          251.317.  174.                              
 5101     42304 1      .01 .1475      .9374 .8671.038       5101600.600.17275.                              
 5101     42305 2      .01 .1475      .9374 .8671.038       5101600.600.17275.                              
 5102      5103 5          -.505         1.                     100.108.  100.                              
 5102      5104 5         27.005         1.                      30. 32.   30.                              
 5103      5106 1           135.         1.                       5.  5.  174.                              
 5103      5106 2           143.         1.                       5.  5.  251.                              
 5103      8018 1 T         .001                                99999999  9999                              
 5103      8019 1 T         .001                                99999999  9999                              
 5110      5111 2      .42  2.26  3.86                          311.311.  174.                              
 5110      5115 1         22.652      .8784 .6961.043      -51159999999932174.                              
 5110      5116 1         22.652      .8784 .6961.043      -51169999999932174.                              
 5110      5117 1         17.857      .8805 .6961.043      -51179999999932174.                              
 5111      5113 1          12.75      1.014 .7271.117      -5113100.106.21251.                              
 5111      5113 2          13.02      1.014 .7271.117      -5113100.106.21100.                              
 5111      5113 3          12.73      1.014 .7271.117      -5113100.106.21100.                              
 5111      5301 4      .21  1.08  2.02                          174.247.  100.                              
 5111      5301 5      .21  1.09  2.02                          174.247.  100.                              
 5111      5302 3      .21  1.12  1.94                          251.317.  251.                              
 5113     47144 1 T         .001                                99999999  9999                              
 5113     47266 1    15.64 38.22  .621                           53. 67.   53.                              
 5115      5118 1            75.                                99999999   51.                              
 5116      5119 1            75.                                99999999  180.                              
 5117      5120 1         22.475                                99999999   25.                              
 5121      5123 1           13.5      .9641 .7271.117      -5123100.105.21100.                              
 5121      5123 2          12.87      .9641 .7271.117      -5123100.105.21100.                              
 5121      5123 3     .215 13.22      .9641 .7271.117      -5123100.100.21 33.                              
 5121      5123 4     .262 13.11      .9641 .7271.117      -5123100.105.21100.                              
 5121      5222 1     2.28 11.96  21.3                          251.261.  251.                              
 5121      5222 2     2.28 12.19 21.08                          251.261.  251.                              
 5121     46156 1    .0438 .2182 .3693                          200.200.  200.                              
 5123     47171 1 T         .001                                99999999  9999                              
 5128      6141 1     .059  .587 2.277                          630.781.  630.                              
 5128      6141 2     .059  .587 2.277                          630.781.  630.                              
 5128      8148 1    .19621.9735 7.527                          450.639.  450.                              
 5128      8374 4     .349  2.47 4.895                          306.358.  306.                              
 5128      8895 5    .23921.4374 2.758                          350.350.  350.                              
 5128     44100 6   .01152-.3109      .9239   .9  1.1       5128900.108032900.                              
 5128     44102 7   .01152-.3109      .9239   .9  1.1       5128900.108032900.                              
 5128     44104 8   .01152-.3109      .9239   .9  1.1       5128900.108032900.                              
 5131      5133 1          12.89      .9819 .7271.117      -5133100.106.21251.                              
 5131      5133 2          12.71      .9819 .7271.117      -5133100.106.21174.                              
 5131      5133 3          13.43      .9819 .7271.117      -5133100.106.21174.                              
 5131      5133 4     .224 13.18      .9819 .7271.117      -5133100.100.21100.                              
 5131      5141 1      .51  2.59  4.84                          360.360.  100.                              
 5131      5346 2      .63   3.2  5.98                          360.360.  360.                              
 5131      5361 7      .19  1.38  5.08                          540.645.  540.                              
 5131      5361 8      .19  1.38  5.08                          540.645.  540.                              
 5131      8445 1 T   .001  .001                                99999999  135.                              
 5132     44631 1    .0727 -.667         1.                     150.180.  150.                              
 5133      5134 1            19.         1.                      63. 63.   63.                              
 5133     47172 1 T         .001                                99999999  9999                              
 5135      5136 1     .79530.987         1.                       2.  2.    2.                              
...
99999
DCSC
(De ) O  (Pa )NcEPB      (Xmin)(Xmax)( Xv )C ( Vsp) (Ext)Nst(Cn)(Ce)(Cq)(1)(2)(3)(4)(5)(6)(7)(8)(9)(10
 5158     5157 6 T                    16.28X  16.28  5158    40. 43. 48.
 5160     5159 7 T                    16.28X  16.28  5160    40. 43. 48.
 5166     6715 5 T                    16.28X  16.28  5166    40. 48. 48.
 5436     5437 1         -1.908-1.908-1.908X -1.908  5436   155919921992
 5436     5575 2         -1.908-1.908-1.908X -1.908  5436   155921042104
 5570     5577 2  L      -1.539-1.539-1.539X -1.539  5570   15591992686.
 6082    47222 5 T        -.598 -.598 -.598X  -.598  6082   173423412341
 6360     6080 5          -.598 -.598 -.598X  -.598  6360   173423412341
 6360     6443 2          -.554 -.554 -.554X  -.554  6360   173423412341
 6360     6446 2 T         -.85  -.85  -.85X   -.85  6360   216529222922
 6444     6442 1         -.8847-.8847-.8847X -.8847  6444   207828062078
 7190     7197 2           -.85  -.85  -.85X   -.85  7190   216529222922
43952     5572 5          -1.88 -1.88 -1.88X  -1.88 43952   151520462046
47222     6445 2          -.554 -.554 -.554X  -.554 47222   173423412341
99999
DCAI
(Num) O  Gr E (U) UOp ( P ) ( Q ) (A) (B) (C) (D) (Vfl) (Vf)
99999
DGEI
(Num) OA Gr E(U)UOpUOn( Pg)( Qg)( Qn)( Qm)(Xtrf) ( Xd)( Xq)( Xl) (fp)( Sn)(Ptu)
99999
DBSH
(NFr) O (NTo) Nc C (Vmn (Vmx Bctrl (Qini) T A (Extr
 5038            F 0950 1050  5038        C
(G  O E (U) UOp (Sht ) M
10        1   0   8.22 S
20        1   0    -2. S
FBAN
(NFr) O (NTo) Nc C (Vmn (Vmx Bctrl (Qini) T A (Extr
 5039            F 0950 1050  5039    -2. C
(G  O E (U) UOp (Sht ) M
10        1   0   8.22 S
20        1   1    -2. S
FBAN
(NFr) O (NTo) Nc C (Vmn (Vmx Bctrl (Qini) T A (Extr
 5042            D 0950 1050  5042        C
(G  O E (U) UOp (Sht ) M
10        1   0    20. S
90        1   0   5.27 S
FBAN
(NFr) O (NTo) Nc C (Vmn (Vmx Bctrl (Qini) T A (Extr
 5043            D 0950 1050  5043        C
(G  O E (U) UOp (Sht ) M
10        1   0    20. S
90        1   0   5.27 S
FBAN
(NFr) O (NTo) Nc C (Vmn (Vmx Bctrl (Qini) T A (Extr
 5380    5050  1 F 1000 1100  5050  -200. C    5050
(G  O E (U) UOp (Sht ) M
10        1   1  -200. N
FBAN
(NFr) O (NTo) Nc C (Vmn (Vmx Bctrl (Qini) T A (Extr
 6500    5050  5 F 1000 1100  5050  -150. C    5050
(G  O E (U) UOp (Sht ) M
10        1   1  -150. N
FBAN
(NFr) O (NTo) Nc C (Vmn (Vmx Bctrl (Qini) T A (Extr
 5050    6500  4 F 1000 1100  5050  -150. C    5050
(G  O E (U) UOp (Sht ) M
10        1   1  -150. N
FBAN
(NFr) O (NTo) Nc C (Vmn (Vmx Bctrl (Qini) T A (Extr
 5060    5750  1 F 1000 1100  5060  -136. C    5060
(G  O E (U) UOp (Sht ) M
10        1   1  -136. N
FBAN
(NFr) O (NTo) Nc C (Vmn (Vmx Bctrl (Qini) T A (Extr
 5060    5750  2 F 1000 1100  5060  -136. C    5060
(G  O E (U) UOp (Sht ) M
10        1   1  -136. N
FBAN
(NFr) O (NTo) Nc C (Vmn (Vmx Bctrl (Qini) T A (Extr
 5090            F 1000 1100  5090        C
(G  O E (U) UOp (Sht ) M
10        3   0  -150. S
FBAN
(NFr) O (NTo) Nc C (Vmn (Vmx Bctrl (Qini) T A (Extr
 5050    5090  1 D 1000 1100  5090  -150. C    5090
(G  O E (U) UOp (Sht ) M
10        1   1  -150. S
FBAN
(NFr) O (NTo) Nc C (Vmn (Vmx Bctrl (Qini) T A (Extr
 5050    5090  2 D 1000 1100  5090  -150. C    5090
(G  O E (U) UOp (Sht ) M
10        1   1  -150. S
FBAN
(NFr) O (NTo) Nc C (Vmn (Vmx Bctrl (Qini) T A (Extr
 5090    5200  3 D 1000 1100  5090        C    5090
(G  O E (U) UOp (Sht ) M
10        1   0  -100. S
FBAN
(NFr) O (NTo) Nc C (Vmn (Vmx Bctrl (Qini) T A (Extr
 5100            F 1000 1100  5100  -150. C
(G  O E (U) UOp (Sht ) M
10        2   1  -150. S
FBAN
(NFr) O (NTo) Nc C (Vmn (Vmx Bctrl (Qini) T A (Extr
 5001    5100  6 F 1000 1100  5100  -150. C    5100
(G  O E (U) UOp (Sht ) M
10        1   1  -150. N
FBAN
(NFr) O (NTo) Nc C (Vmn (Vmx Bctrl (Qini) T A (Extr
 5060    5100  1 F 1000 1100  5100  -150. C    5100
(G  O E (U) UOp (Sht ) M
10        1   1  -150. S
FBAN
(NFr) O (NTo) Nc C (Vmn (Vmx Bctrl (Qini) T A (Extr
 5090    5100  5 F 1000 1100  5100  -150. C    5100
(G  O E (U) UOp (Sht ) M
10        1   1  -150. N
FBAN
(NFr) O (NTo) Nc C (Vmn (Vmx Bctrl (Qini) T A (Extr
 5113            D 0800 1200  5113   21.3 C
(G  O E (U) UOp (Sht ) M
10        3   1   21.3 S
20        1   0   27.1 S
FBAN
(NFr) O (NTo) Nc C (Vmn (Vmx Bctrl (Qini) T A (Extr
 5118            D 0800 1200  5118        C
(G  O E (U) UOp (Sht ) M
10        1   0    5.1 S
FBAN
(NFr) O (NTo) Nc C (Vmn (Vmx Bctrl (Qini) T A (Extr
 5119            D 0950 1200  5119        C
(G  O E (U) UOp (Sht ) M
10        1   0    5.1 S
FBAN
(NFr) O (NTo) Nc C (Vmn (Vmx Bctrl (Qini) T A (Extr
 5120            D 0950 1200  5120        C
(G  O E (U) UOp (Sht ) M
10        1   0    20. S
FBAN
(NFr) O (NTo) Nc C (Vmn (Vmx Bctrl (Qini) T A (Extr
 5133            D 0800 1200  5133   21.3 C
(G  O E (U) UOp (Sht ) M
10        1   1   21.3 S
FBAN
(NFr) O (NTo) Nc C (Vmn (Vmx Bctrl (Qini) T A (Extr
 5180    5140  8 F 1000 1100  5140  -100. C    5140
(G  O E (U) UOp (Sht ) M
10        1   1  -100. S
FBAN
(NFr) O (NTo) Nc C (Vmn (Vmx Bctrl (Qini) T A (Extr
 5360    5140  4 F 1000 1100  5140  -100. C    5140
(G  O E (U) UOp (Sht ) M
10        1   1  -100. S
FBAN
(NFr) O (NTo) Nc C (Vmn (Vmx Bctrl (Qini) T A (Extr
 5156            D 0800 1200  5156   20.3 C
(G  O E (U) UOp (Sht ) M
10        1   1   20.3 S
FBAN
(NFr) O (NTo) Nc C (Vmn (Vmx Bctrl (Qini) T A (Extr
 5176            F 1000 1100  5176  -100. C
(G  O E (U) UOp (Sht ) M
10        1   1  -100. S
FBAN
(NFr) O (NTo) Nc C (Vmn (Vmx Bctrl (Qini) T A (Extr
 5176    5318  1 F 1000 1100  5176  -150. C    5176
(G  O E (U) UOp (Sht ) M
10        1   1  -150. N
FBAN
(NFr) O (NTo) Nc C (Vmn (Vmx Bctrl (Qini) T A (Extr
 5500    5176  7 F 1000 1100  5176 -148.7 C    5176
(G  O E (U) UOp (Sht ) M
10        1   1 -148.7 N
FBAN
(NFr) O (NTo) Nc C (Vmn (Vmx Bctrl (Qini) T A (Extr
 5679    5176  1 F 1000 1100  5176  -100. C    5176
(G  O E (U) UOp (Sht ) M
10        1   1  -100. N
FBAN
(NFr) O (NTo) Nc C (Vmn (Vmx Bctrl (Qini) T A (Extr
45107    5176  1 F 1000 1100  5176  -150. C    5176
(G  O E (U) UOp (Sht ) M
10        1   1  -150. N
FBAN
(NFr) O (NTo) Nc C (Vmn (Vmx Bctrl (Qini) T A (Extr
 5180            F 1000 1100  5180        C
(G  O E (U) UOp (Sht ) M
10        1   0  -180. S
FBAN
(NFr) O (NTo) Nc C (Vmn (Vmx Bctrl (Qini) T A (Extr
 5090    5180  4 F 1000 1100  5180  -180. C    5180
(G  O E (U) UOp (Sht ) M
10        1   1  -180. S
FBAN
(NFr) O (NTo) Nc C (Vmn (Vmx Bctrl (Qini) T A (Extr
 5100    5180  3 F 1000 1100  5180  -100. C    5180
(G  O E (U) UOp (Sht ) M
10        1   1  -100. S
FBAN
(NFr) O (NTo) Nc C (Vmn (Vmx Bctrl (Qini) T A (Extr
 5193            D 1000 1050  5193   42.6 C
(G  O E (U) UOp (Sht ) M
10        2   2   21.3 S
FBAN
(NFr) O (NTo) Nc C (Vmn (Vmx Bctrl (Qini) T A (Extr
 5200            F 1000 1100  5200        C
(G  O E (U) UOp (Sht ) M
10        2   0  -150. S
FBAN
(NFr) O (NTo) Nc C (Vmn (Vmx Bctrl (Qini) T A (Extr
 5090    5200  3 F 1000 1100  5200  -100. C    5200
(G  O E (U) UOp (Sht ) M
10        1   1  -100. S
FBAN
(NFr) O (NTo) Nc C (Vmn (Vmx Bctrl (Qini) T A (Extr
 5926    5200  6 F 1000 1100  5200  -100. C    5200
(G  O E (U) UOp (Sht ) M
10        1   1  -100. N
FBAN
(NFr) O (NTo) Nc C (Vmn (Vmx Bctrl (Qini) T A (Extr
 5200    6130  2 F 1000 1100  5200  -100. C    5200
(G  O E (U) UOp (Sht ) M
10        1   1  -100. N
FBAN
(NFr) O (NTo) Nc C (Vmn (Vmx Bctrl (Qini) T A (Extr
 5200    6130  3 F 1000 1100  5200  -100. C    5200
(G  O E (U) UOp (Sht ) M
10        1   1  -100. N
FBAN
(NFr) O (NTo) Nc C (Vmn (Vmx Bctrl (Qini) T A (Extr
 5201            D 0950 1050  5201        C
(G  O E (U) UOp (Sht ) M
10        1   0   -10. S
FBAN
(NFr) O (NTo) Nc C (Vmn (Vmx Bctrl (Qini) T A (Extr
 5203            D 1000 1050  5203   21.3 C
(G  O E (U) UOp (Sht ) M
10        1   1   21.3 S
FBAN
(NFr) O (NTo) Nc C (Vmn (Vmx Bctrl (Qini) T A (Extr
 5213            D 0800 1200  5213   42.6 C
(G  O E (U) UOp (Sht ) M
10        2   2   21.3 S
FBAN
(NFr) O (NTo) Nc C (Vmn (Vmx Bctrl (Qini) T A (Extr
 5222            D 0950 1050  5222        C
(G  O E (U) UOp (Sht ) M
10        1   0   -30. S
20        1   0   -10. S
30        1   0   50.5 S
FBAN
(NFr) O (NTo) Nc C (Vmn (Vmx Bctrl (Qini) T A (Extr
 5226            D 0900 1100  5226   21.3 C
(G  O E (U) UOp (Sht ) M
10        2   1   21.3 S
FBAN
(NFr) O (NTo) Nc C (Vmn (Vmx Bctrl (Qini) T A (Extr
 5232            D 0930 1050  5232    -5. C
(G  O E (U) UOp (Sht ) M
10        2   1    -5. S
FBAN
(NFr) O (NTo) Nc C (Vmn (Vmx Bctrl (Qini) T A (Extr
 5241            D 0950 1050  5241   -30. C
(G  O E (U) UOp (Sht ) M
10        1   1   -30. S
FBAN
(NFr) O (NTo) Nc C (Vmn (Vmx Bctrl (Qini) T A (Extr
 5245    5241  3 D 0950 1050  5241        C    5241
(G  O E (U) UOp (Sht ) M
10        1   0   -10. S
FBAN
(NFr) O (NTo) Nc C (Vmn (Vmx Bctrl (Qini) T A (Extr
 5254    5241  2 D 0950 1050  5241        C    5241
(G  O E (U) UOp (Sht ) M
10        1   0   -10. S
FBAN
(NFr) O (NTo) Nc C (Vmn (Vmx Bctrl (Qini) T A (Extr
 5243            D 0950 1050  5243   21.3 C
(G  O E (U) UOp (Sht ) M
10        4   1   21.3 S
FBAN
(NFr) O (NTo) Nc C (Vmn (Vmx Bctrl (Qini) T A (Extr
 5252            D 0950 1050  5252        C
(G  O E (U) UOp (Sht ) M
10        1   0   -10. S
FBAN
(NFr) O (NTo) Nc C (Vmn (Vmx Bctrl (Qini) T A (Extr
 5273            D 0950 1050  5273   42.6 C
(G  O E (U) UOp (Sht ) M
10        2   2   21.3 S
FBAN
(NFr) O (NTo) Nc C (Vmn (Vmx Bctrl (Qini) T A (Extr
 5291            D 0950 1050  5291    15. C
(G  O E (U) UOp (Sht ) M
10        2   1    15. S
FBAN
(NFr) O (NTo) Nc C (Vmn (Vmx Bctrl (Qini) T A (Extr
 5741    5291  7 F 0950 1050  5291   -10. C    5291
(G  O E (U) UOp (Sht ) M
10        1   1   -10. S
FBAN
(NFr) O (NTo) Nc C (Vmn (Vmx Bctrl (Qini) T A (Extr
 5060    5300  4 F 1000 1100  5300  -150. C    5300
(G  O E (U) UOp (Sht ) M
10        1   1  -150. N
FBAN
(NFr) O (NTo) Nc C (Vmn (Vmx Bctrl (Qini) T A (Extr
 5309            D 0950 1050  5530   4.18 C
(G  O E (U) UOp (Sht ) M
90        1   1   1.69 N
91        1   1   2.49 N
FBAN
(NFr) O (NTo) Nc C (Vmn (Vmx Bctrl (Qini) T A (Extr
 5318            F 1000 1100  5318  -100. C
(G  O E (U) UOp (Sht ) M
10        1   1  -100. S
FBAN
(NFr) O (NTo) Nc C (Vmn (Vmx Bctrl (Qini) T A (Extr
 5318    5370  1 F 1000 1100  5318   -90. C    5318
(G  O E (U) UOp (Sht ) M
10        1   1   -90. N
FBAN
(NFr) O (NTo) Nc C (Vmn (Vmx Bctrl (Qini) T A (Extr
 5679    5318  1 F 1000 1100  5318  -100. C    5318
(G  O E (U) UOp (Sht ) M
10        1   1  -100. N
FBAN
(NFr) O (NTo) Nc C (Vmn (Vmx Bctrl (Qini) T A (Extr
 5491    5321  7 F 0950 1050  5321   -10. C    5321
(G  O E (U) UOp (Sht ) M
10        1   1   -10. N
FBAN
(NFr) O (NTo) Nc C (Vmn (Vmx Bctrl (Qini) T A (Extr
 5325            F 1000 1100  5325  -400. C
(G  O E (U) UOp (Sht ) M
10        2   2  -200. S
FBAN
(NFr) O (NTo) Nc C (Vmn (Vmx Bctrl (Qini) T A (Extr
 5380    5325  3 F 1000 1100  5325  -270. C    5325
(G  O E (U) UOp (Sht ) M
10        1   1  -270. N
FBAN
(NFr) O (NTo) Nc C (Vmn (Vmx Bctrl (Qini) T A (Extr
 6075    5325  2 F 1000 1100  5325  -270. C    5325
(G  O E (U) UOp (Sht ) M
10        1   1  -270. N
FBAN
(NFr) O (NTo) Nc C (Vmn (Vmx Bctrl (Qini) T A (Extr
 6075    5325  3 F 1000 1100  5325  -270. C    5325
(G  O E (U) UOp (Sht ) M
10        1   1  -270. N
FBAN
(NFr) O (NTo) Nc C (Vmn (Vmx Bctrl (Qini) T A (Extr
 6640    5325  1 F 1000 1100  5325  -150. C    5325
(G  O E (U) UOp (Sht ) M
10        1   1  -150. N
FBAN
(NFr) O (NTo) Nc C (Vmn (Vmx Bctrl (Qini) T A (Extr
 5350            F 1000 1100  5350  -450. C
(G  O E (U) UOp (Sht ) M
10        3   3  -150. S
FBAN
(NFr) O (NTo) Nc C (Vmn (Vmx Bctrl (Qini) T A (Extr
 5380    5350  2 F 1000 1100  5350  -155. C    5350
(G  O E (U) UOp (Sht ) M
10        1   1  -155. N
FBAN
(NFr) O (NTo) Nc C (Vmn (Vmx Bctrl (Qini) T A (Extr
 5428    5350  2 F 1000 1100  5350  -150. C    5350
(G  O E (U) UOp (Sht ) M
10        1   1  -150. N
FBAN
(NFr) O (NTo) Nc C (Vmn (Vmx Bctrl (Qini) T A (Extr
 5924    5350  7 F 1000 1100  5350  -100. C    5350
(G  O E (U) UOp (Sht ) M
10        1   1  -100. S
FBAN
(NFr) O (NTo) Nc C (Vmn (Vmx Bctrl (Qini) T A (Extr
 5300    5360  2 D 1000 1100  5360        C    5360
(G  O E (U) UOp (Sht ) M
10        1   0  -100. S
FBAN
(NFr) O (NTo) Nc C (Vmn (Vmx Bctrl (Qini) T A (Extr
 5318    5370  1 F 1000 1100  5370   -90. C    5370
(G  O E (U) UOp (Sht ) M
10        1   1   -90. N
FBAN
(NFr) O (NTo) Nc C (Vmn (Vmx Bctrl (Qini) T A (Extr
 5380            D 1000 1100  5380  -100. C
(G  O E (U) UOp (Sht ) M
10        2   1  -100. S
FBAN
(NFr) O (NTo) Nc C (Vmn (Vmx Bctrl (Qini) T A (Extr
 5380    5050  1 F 1000 1100  5380  -100. C    5380
(G  O E (U) UOp (Sht ) M
10        1   1  -100. N
FBAN
(NFr) O (NTo) Nc C (Vmn (Vmx Bctrl (Qini) T A (Extr
 5380    5325  3 F 1000 1100  5380  -270. C    5380
(G  O E (U) UOp (Sht ) M
10        1   1  -270. N
FBAN
(NFr) O (NTo) Nc C (Vmn (Vmx Bctrl (Qini) T A (Extr
 5380    5350  2 F 1000 1100  5380  -155. C    5380
(G  O E (U) UOp (Sht ) M
10        1   1  -155. N
FBAN
(NFr) O (NTo) Nc C (Vmn (Vmx Bctrl (Qini) T A (Extr
 5926    5380  5 F 1000 1100  5380  -100. C    5380
(G  O E (U) UOp (Sht ) M
10        1   1  -100. N
FBAN
(NFr) O (NTo) Nc C (Vmn (Vmx Bctrl (Qini) T A (Extr
 6640    5380  6 F 1000 1100  5380  -180. C    5380
(G  O E (U) UOp (Sht ) M
10        1   1  -180. N
FBAN
(NFr) O (NTo) Nc C (Vmn (Vmx Bctrl (Qini) T A (Extr
 5408            D 1000 1100  5408  -100. C
(G  O E (U) UOp (Sht ) M
10        1   1  -100. S
FBAN
(NFr) O (NTo) Nc C (Vmn (Vmx Bctrl (Qini) T A (Extr
 5428    5408  3 F 1000 1100  5408  -150. C    5408
(G  O E (U) UOp (Sht ) M
10        1   1  -150. N
FBAN
(NFr) O (NTo) Nc C (Vmn (Vmx Bctrl (Qini) T A (Extr
 5409            D 0900 1050  5409   -10. C
(G  O E (U) UOp (Sht ) M
10        1   1   -10. S
20        1   0    -5. S
FBAN
(NFr) O (NTo) Nc C (Vmn (Vmx Bctrl (Qini) T A (Extr
 5411            D 0950 1050  5411        C
(G  O E (U) UOp (Sht ) M
10        1   0   -20. S
20        2   0    50. S
FBAN
(NFr) O (NTo) Nc C (Vmn (Vmx Bctrl (Qini) T A (Extr
 5401    5411  1 F 0950 1050  5411   -10. C    5411
(G  O E (U) UOp (Sht ) M
10        1   1   -10. N
FBAN
(NFr) O (NTo) Nc C (Vmn (Vmx Bctrl (Qini) T A (Extr
 5413            D 0950 1050  5413        C
(G  O E (U) UOp (Sht ) M
10        1   0   20.3 S
FBAN
...